tests/data/power_flow/pandapower-symmetric-sym_load/pgm_sym_output.json
{
  "line": [
    {
      "id": 3,
      "energized": 1,
      "loading": 0.018790041737654903,
      "p_from": 30073.518124300877,
      "q_from": -340411.3604017781,
      "i_from": 18.790041737654903,
      "s_from": 341737.1954923284,
      "p_to": -30008.065020940383,
      "q_to": -6001.613004243254,
      "i_to": 1.6822402055255752,
      "s_to": 30602.341821398037
    }
  ],
  "node": [
    {
      "id": 1,
      "energized": 1,
      "u_pu": 1.0000335718062516,
      "u": 10500.352503965642,
      "u_angle": -6.379432364066315e-06
    },
    {
      "id": 2,
      "energized": 1,
      "u_pu": 1.0002688099437975,
      "u": 10502.822504409874,
      "u_angle": -0.0004399858596311814
    }
  ],
  "source": [
    {
      "id": 4,
      "energized": 1,
      "p": 30073.51812427799,
      "q": -340411.3603999526,
      "i": 18.79004173755481,
      "s": 341737.195490508,
      "pf": 0.0880018871844265
    }
  ],
  "sym_load": [
    {
      "id": 6,
      "energized": 1,
      "p": 10000.0,
      "q": 2000.0,
      "i": 0.5605960278848606,
      "s": 10198.03902718557,
      "pf": 0.9805806756909201
    },
    {
      "id": 7,
      "energized": 1,
      "p": 10002.688099437975,
      "q": 2000.537619887595,
      "i": 0.5607467216716094,
      "s": 10200.780361483314,
      "pf": 0.98058067569092
    },
    {
      "id": 8,
      "energized": 1,
      "p": 10005.37692146381,
      "q": 2001.0753842927618,
      "i": 0.5608974559663467,
      "s": 10203.522432678974,
      "pf": 0.9805806756909202
    },
    {
      "id": 9,
      "energized": 1,
      "p": -0.0,
      "q": -0.0,
      "i": 0.0,
      "s": 0.0,
      "pf": 0.0
    }
  ]
}