tests/data/power_flow/pandapower-symmetric-sym_load/sym_output.json
{
  "line": [
    {
      "id": 3,
      "loading": 0.01879004170928983,
      "p_from": 30073.52281809303,
      "q_from": -340411.35946916987,
      "i_from": 18.790041709289827,
      "s_from": 341737.19497640105,
      "p_to": -30008.069714872592,
      "q_to": -6001.613932531971,
      "i_to": 1.6822404685733523,
      "s_to": 30602.346606229657
    }
  ],
  "node": [
    {
      "id": 1,
      "u_pu": 1.0000335718061122,
      "u": 10500.352503964179,
      "u_angle": -6.379432821288792e-06
    },
    {
      "id": 2,
      "u_pu": 1.000268809931326,
      "u": 10502.822504278924,
      "u_angle": -0.0004399858664922487
    }
  ],
  "source": [
    {
      "id": 4,
      "p": 30073.52281269274,
      "q": -340411.35946752125,
      "i": 18.790041709173405,
      "s": 341737.19497428363
    }
  ],
  "sym_load": [
    {
      "id": 6,
      "p": 10000.0,
      "q": 2000.0
    },
    {
      "id": 7,
      "p": 10002.68809931326,
      "q": 2000.5376198626518
    },
    {
      "id": 8,
      "p": 10005.37692121431,
      "q": 2001.0753842428621
    },
    {
      "id": 9,
      "p": 0.0,
      "q": 0.0
    }
  ]
}